MODEL 1
REMARK VINA RESULT:    -6.577      0.000      0.000
REMARK INTER + INTRA:          -9.881
REMARK INTER:                  -9.460
REMARK INTRA:                  -0.421
REMARK UNBOUND:                -0.421
REMARK  Name = 160355
REMARK  8 active torsions:
REMARK  status: ('A' for Active; 'I' for Inactive)
REMARK    1  A    between atoms: O_1  and  C_18
REMARK    2  A    between atoms: N_2  and  C_8
REMARK    3  A    between atoms: N_3  and  CA_9
REMARK    4  A    between atoms: N_7  and  C_13
REMARK    5  A    between atoms: N_7  and  C_20
REMARK    6  A    between atoms: CA_9  and  C_12
REMARK    7  A    between atoms: CA_9  and  C_18
REMARK    8  A    between atoms: C_20  and  C_21
REMARK                            x       y       z     vdW  Elec       q    Type
REMARK                         _______ _______ _______ _____ _____    ______ ____
ROOT
ATOM      1  N   UNL     1     -14.578 -18.271   1.863  0.00  0.00    -0.312 N 
ATOM      2  N   UNL     1     -15.327 -15.186   5.397  0.00  0.00    -0.308 N 
ATOM      3  N   UNL     1     -14.835 -16.561   3.568  0.00  0.00    -0.195 NA
ATOM      4  N   UNL     1     -15.871 -19.870   2.726  0.00  0.00    -0.231 NA
ATOM      5  N   UNL     1     -16.309 -17.312   5.362  0.00  0.00    -0.197 NA
ATOM      6  C   UNL     1     -15.071 -17.768   3.033  0.00  0.00    +0.167 A 
ATOM      7  C   UNL     1     -15.869 -18.775   3.553  0.00  0.00    +0.148 A 
ATOM      8  C   UNL     1     -16.502 -18.513   4.764  0.00  0.00    +0.152 A 
ATOM      9  C   UNL     1     -15.496 -16.396   4.751  0.00  0.00    +0.219 A 
ATOM     10  C   UNL     1     -15.087 -19.535   1.722  0.00  0.00    +0.099 A 
ATOM     11  H   UNL     1     -15.870 -15.036   6.240  0.00  0.00    +0.149 HD
ENDROOT
BRANCH   1  12
ATOM     12  C   UNL     1     -13.689 -17.605   0.942  0.00  0.00    +0.032 C 
ATOM     13  C   UNL     1     -14.276 -16.287   0.434  0.00  0.00    -0.044 C 
ATOM     14  C   UNL     1     -12.293 -17.410   1.533  0.00  0.00    -0.044 C 
ENDBRANCH   1  12
BRANCH   8  15
ATOM     15  N   UNL     1     -17.330 -19.477   5.364  0.00  0.00    -0.323 N 
ATOM     16  H   UNL     1     -17.195 -20.441   5.081  0.00  0.00    +0.148 HD
BRANCH  15  17
ATOM     17  C   UNL     1     -18.334 -19.151   6.333  0.00  0.00    +0.036 C 
BRANCH  17  18
ATOM     18  C   UNL     1     -19.585 -19.947   6.087  0.00  0.00    -0.030 A 
ATOM     19  C   UNL     1     -20.585 -19.969   7.051  0.00  0.00    -0.057 A 
ATOM     20  C   UNL     1     -19.726 -20.652   4.898  0.00  0.00    -0.057 A 
ATOM     21  C   UNL     1     -21.745 -20.708   6.822  0.00  0.00    -0.061 A 
ATOM     22  C   UNL     1     -20.887 -21.391   4.670  0.00  0.00    -0.061 A 
ATOM     23  C   UNL     1     -21.897 -21.418   5.632  0.00  0.00    -0.062 A 
ENDBRANCH  17  18
ENDBRANCH  15  17
ENDBRANCH   8  15
BRANCH   2  24
ATOM     24  CA  UNL     1     -14.495 -14.114   4.882  0.00  0.00    +0.046 C 
BRANCH  24  25
ATOM     25  C   UNL     1     -13.049 -14.303   5.359  0.00  0.00    -0.035 C 
ATOM     26  C   UNL     1     -12.088 -14.606   4.216  0.00  0.00    -0.064 C 
ENDBRANCH  24  25
BRANCH  24  27
ATOM     27  C   UNL     1     -15.059 -12.779   5.368  0.00  0.00    +0.063 C 
BRANCH  27  28
ATOM     28  O   UNL     1     -16.179 -12.419   4.565  0.00  0.00    -0.393 OA
ATOM     29  H   UNL     1     -15.836 -11.983   3.766  0.00  0.00    +0.209 HD
ENDBRANCH  27  28
ENDBRANCH  24  27
ENDBRANCH   2  24
TORSDOF 8
ENDMDL
MODEL 2
REMARK VINA RESULT:    -6.512     21.458     23.713
REMARK INTER + INTRA:          -9.788
REMARK INTER:                  -8.780
REMARK INTRA:                  -1.008
REMARK UNBOUND:                -0.421
REMARK  Name = 160355
REMARK  8 active torsions:
REMARK  status: ('A' for Active; 'I' for Inactive)
REMARK    1  A    between atoms: O_1  and  C_18
REMARK    2  A    between atoms: N_2  and  C_8
REMARK    3  A    between atoms: N_3  and  CA_9
REMARK    4  A    between atoms: N_7  and  C_13
REMARK    5  A    between atoms: N_7  and  C_20
REMARK    6  A    between atoms: CA_9  and  C_12
REMARK    7  A    between atoms: CA_9  and  C_18
REMARK    8  A    between atoms: C_20  and  C_21
REMARK                            x       y       z     vdW  Elec       q    Type
REMARK                         _______ _______ _______ _____ _____    ______ ____
ROOT
ATOM      1  N   UNL     1     -27.503   3.561  -3.244  0.00  0.00    -0.312 N 
ATOM      2  N   UNL     1     -30.977   1.641  -0.633  0.00  0.00    -0.308 N 
ATOM      3  N   UNL     1     -29.320   2.772  -1.838  0.00  0.00    -0.195 NA
ATOM      4  N   UNL     1     -26.862   1.631  -4.159  0.00  0.00    -0.231 NA
ATOM      5  N   UNL     1     -29.616   0.358  -2.043  0.00  0.00    -0.197 NA
ATOM      6  C   UNL     1     -28.326   2.603  -2.722  0.00  0.00    +0.167 A 
ATOM      7  C   UNL     1     -27.911   1.414  -3.301  0.00  0.00    +0.148 A 
ATOM      8  C   UNL     1     -28.599   0.262  -2.932  0.00  0.00    +0.152 A 
ATOM      9  C   UNL     1     -29.934   1.589  -1.538  0.00  0.00    +0.219 A 
ATOM     10  C   UNL     1     -26.643   2.928  -4.102  0.00  0.00    +0.099 A 
ATOM     11  H   UNL     1     -31.479   0.777  -0.461  0.00  0.00    +0.149 HD
ENDROOT
BRANCH   1  12
ATOM     12  C   UNL     1     -27.529   4.973  -2.954  0.00  0.00    +0.032 C 
ATOM     13  C   UNL     1     -26.822   5.300  -1.637  0.00  0.00    -0.044 C 
ATOM     14  C   UNL     1     -26.977   5.806  -4.112  0.00  0.00    -0.044 C 
ENDBRANCH   1  12
BRANCH   8  15
ATOM     15  N   UNL     1     -28.246  -0.988  -3.470  0.00  0.00    -0.323 N 
ATOM     16  H   UNL     1     -27.368  -1.041  -3.976  0.00  0.00    +0.148 HD
BRANCH  15  17
ATOM     17  C   UNL     1     -29.064  -2.156  -3.336  0.00  0.00    +0.036 C 
BRANCH  17  18
ATOM     18  C   UNL     1     -28.487  -3.090  -2.308  0.00  0.00    -0.030 A 
ATOM     19  C   UNL     1     -28.878  -2.973  -0.980  0.00  0.00    -0.057 A 
ATOM     20  C   UNL     1     -27.571  -4.057  -2.699  0.00  0.00    -0.057 A 
ATOM     21  C   UNL     1     -28.344  -3.840  -0.027  0.00  0.00    -0.061 A 
ATOM     22  C   UNL     1     -27.036  -4.923  -1.744  0.00  0.00    -0.061 A 
ATOM     23  C   UNL     1     -27.423  -4.815  -0.409  0.00  0.00    -0.062 A 
ENDBRANCH  17  18
ENDBRANCH  15  17
ENDBRANCH   8  15
BRANCH   2  24
ATOM     24  CA  UNL     1     -31.433   2.868  -0.006  0.00  0.00    +0.046 C 
BRANCH  24  25
ATOM     25  C   UNL     1     -31.872   2.582   1.436  0.00  0.00    -0.035 C 
ATOM     26  C   UNL     1     -32.061   1.095   1.711  0.00  0.00    -0.064 C 
ENDBRANCH  24  25
BRANCH  24  27
ATOM     27  C   UNL     1     -32.590   3.438  -0.825  0.00  0.00    +0.063 C 
BRANCH  27  28
ATOM     28  O   UNL     1     -32.075   4.302  -1.833  0.00  0.00    -0.393 OA
ATOM     29  H   UNL     1     -31.246   3.909  -2.157  0.00  0.00    +0.209 HD
ENDBRANCH  27  28
ENDBRANCH  24  27
ENDBRANCH   2  24
TORSDOF 8
ENDMDL
MODEL 3
REMARK VINA RESULT:    -6.355     21.469     23.781
REMARK INTER + INTRA:          -9.561
REMARK INTER:                  -8.569
REMARK INTRA:                  -0.992
REMARK UNBOUND:                -0.421
REMARK  Name = 160355
REMARK  8 active torsions:
REMARK  status: ('A' for Active; 'I' for Inactive)
REMARK    1  A    between atoms: O_1  and  C_18
REMARK    2  A    between atoms: N_2  and  C_8
REMARK    3  A    between atoms: N_3  and  CA_9
REMARK    4  A    between atoms: N_7  and  C_13
REMARK    5  A    between atoms: N_7  and  C_20
REMARK    6  A    between atoms: CA_9  and  C_12
REMARK    7  A    between atoms: CA_9  and  C_18
REMARK    8  A    between atoms: C_20  and  C_21
REMARK                            x       y       z     vdW  Elec       q    Type
REMARK                         _______ _______ _______ _____ _____    ______ ____
ROOT
ATOM      1  N   UNL     1     -29.968   1.855  -1.114  0.00  0.00    -0.312 N 
ATOM      2  N   UNL     1     -30.293  -2.572   0.578  0.00  0.00    -0.308 N 
ATOM      3  N   UNL     1     -29.945  -0.444  -0.331  0.00  0.00    -0.195 NA
ATOM      4  N   UNL     1     -31.955   2.503  -0.337  0.00  0.00    -0.231 NA
ATOM      5  N   UNL     1     -31.989  -0.987   0.886  0.00  0.00    -0.197 NA
ATOM      6  C   UNL     1     -30.496   0.770  -0.473  0.00  0.00    +0.167 A 
ATOM      7  C   UNL     1     -31.728   1.193   0.001  0.00  0.00    +0.148 A 
ATOM      8  C   UNL     1     -32.484   0.261   0.704  0.00  0.00    +0.152 A 
ATOM      9  C   UNL     1     -30.758  -1.288   0.370  0.00  0.00    +0.219 A 
ATOM     10  C   UNL     1     -30.881   2.871  -1.004  0.00  0.00    +0.099 A 
ATOM     11  H   UNL     1     -30.863  -3.179   1.157  0.00  0.00    +0.149 HD
ENDROOT
BRANCH   1  12
ATOM     12  C   UNL     1     -28.691   1.927  -1.781  0.00  0.00    +0.032 C 
ATOM     13  C   UNL     1     -28.698   1.173  -3.112  0.00  0.00    -0.044 C 
ATOM     14  C   UNL     1     -28.216   3.371  -1.954  0.00  0.00    -0.044 C 
ENDBRANCH   1  12
BRANCH   8  15
ATOM     15  N   UNL     1     -33.747   0.603   1.221  0.00  0.00    -0.323 N 
ATOM     16  H   UNL     1     -34.419   0.997   0.571  0.00  0.00    +0.148 HD
BRANCH  15  17
ATOM     17  C   UNL     1     -34.104   0.422   2.596  0.00  0.00    +0.036 C 
BRANCH  17  18
ATOM     18  C   UNL     1     -33.090   1.074   3.495  0.00  0.00    -0.030 A 
ATOM     19  C   UNL     1     -32.966   2.457   3.498  0.00  0.00    -0.057 A 
ATOM     20  C   UNL     1     -32.291   0.285   4.312  0.00  0.00    -0.057 A 
ATOM     21  C   UNL     1     -32.027   3.062   4.333  0.00  0.00    -0.061 A 
ATOM     22  C   UNL     1     -31.351   0.891   5.146  0.00  0.00    -0.061 A 
ATOM     23  C   UNL     1     -31.219   2.279   5.157  0.00  0.00    -0.062 A 
ENDBRANCH  17  18
ENDBRANCH  15  17
ENDBRANCH   8  15
BRANCH   2  24
ATOM     24  CA  UNL     1     -29.011  -3.048   0.093  0.00  0.00    +0.046 C 
BRANCH  24  25
ATOM     25  C   UNL     1     -29.216  -3.912  -1.158  0.00  0.00    -0.035 C 
ATOM     26  C   UNL     1     -28.515  -3.346  -2.387  0.00  0.00    -0.064 C 
ENDBRANCH  24  25
BRANCH  24  27
ATOM     27  C   UNL     1     -28.331  -3.849   1.203  0.00  0.00    +0.063 C 
BRANCH  27  28
ATOM     28  O   UNL     1     -28.353  -3.095   2.410  0.00  0.00    -0.393 OA
ATOM     29  H   UNL     1     -27.757  -3.536   3.040  0.00  0.00    +0.209 HD
ENDBRANCH  27  28
ENDBRANCH  24  27
ENDBRANCH   2  24
TORSDOF 8
ENDMDL
MODEL 4
REMARK VINA RESULT:    -6.332      2.662      3.217
REMARK INTER + INTRA:          -9.529
REMARK INTER:                  -8.957
REMARK INTRA:                  -0.572
REMARK UNBOUND:                -0.421
REMARK  Name = 160355
REMARK  8 active torsions:
REMARK  status: ('A' for Active; 'I' for Inactive)
REMARK    1  A    between atoms: O_1  and  C_18
REMARK    2  A    between atoms: N_2  and  C_8
REMARK    3  A    between atoms: N_3  and  CA_9
REMARK    4  A    between atoms: N_7  and  C_13
REMARK    5  A    between atoms: N_7  and  C_20
REMARK    6  A    between atoms: CA_9  and  C_12
REMARK    7  A    between atoms: CA_9  and  C_18
REMARK    8  A    between atoms: C_20  and  C_21
REMARK                            x       y       z     vdW  Elec       q    Type
REMARK                         _______ _______ _______ _____ _____    ______ ____
ROOT
ATOM      1  N   UNL     1     -13.066 -20.165   5.701  0.00  0.00    -0.312 N 
ATOM      2  N   UNL     1     -14.827 -15.778   5.225  0.00  0.00    -0.308 N 
ATOM      3  N   UNL     1     -13.769 -17.855   5.437  0.00  0.00    -0.195 NA
ATOM      4  N   UNL     1     -15.055 -21.145   5.937  0.00  0.00    -0.231 NA
ATOM      5  N   UNL     1     -16.199 -17.650   5.542  0.00  0.00    -0.197 NA
ATOM      6  C   UNL     1     -13.993 -19.164   5.620  0.00  0.00    +0.167 A 
ATOM      7  C   UNL     1     -15.219 -19.793   5.770  0.00  0.00    +0.148 A 
ATOM      8  C   UNL     1     -16.350 -18.984   5.725  0.00  0.00    +0.152 A 
ATOM      9  C   UNL     1     -14.935 -17.144   5.407  0.00  0.00    +0.219 A 
ATOM     10  C   UNL     1     -13.753 -21.335   5.890  0.00  0.00    +0.099 A 
ATOM     11  H   UNL     1     -15.692 -15.258   5.133  0.00  0.00    +0.149 HD
ENDROOT
BRANCH   1  12
ATOM     12  C   UNL     1     -11.634 -20.026   5.605  0.00  0.00    +0.032 C 
ATOM     13  C   UNL     1     -11.018 -19.531   6.915  0.00  0.00    -0.044 C 
ATOM     14  C   UNL     1     -10.965 -21.312   5.117  0.00  0.00    -0.044 C 
ENDBRANCH   1  12
BRANCH   8  15
ATOM     15  N   UNL     1     -17.635 -19.537   5.868  0.00  0.00    -0.323 N 
ATOM     16  H   UNL     1     -18.056 -19.490   6.789  0.00  0.00    +0.148 HD
BRANCH  15  17
ATOM     17  C   UNL     1     -18.347 -20.149   4.786  0.00  0.00    +0.036 C 
BRANCH  17  18
ATOM     18  C   UNL     1     -19.742 -20.513   5.211  0.00  0.00    -0.030 A 
ATOM     19  C   UNL     1     -20.125 -20.331   6.534  0.00  0.00    -0.057 A 
ATOM     20  C   UNL     1     -20.631 -21.027   4.276  0.00  0.00    -0.057 A 
ATOM     21  C   UNL     1     -21.420 -20.668   6.927  0.00  0.00    -0.061 A 
ATOM     22  C   UNL     1     -21.926 -21.364   4.671  0.00  0.00    -0.061 A 
ATOM     23  C   UNL     1     -22.321 -21.184   5.996  0.00  0.00    -0.062 A 
ENDBRANCH  17  18
ENDBRANCH  15  17
ENDBRANCH   8  15
BRANCH   2  24
ATOM     24  CA  UNL     1     -13.559 -15.089   5.069  0.00  0.00    +0.046 C 
BRANCH  24  25
ATOM     25  C   UNL     1     -13.697 -13.636   5.540  0.00  0.00    -0.035 C 
ATOM     26  C   UNL     1     -15.120 -13.106   5.408  0.00  0.00    -0.064 C 
ENDBRANCH  24  25
BRANCH  24  27
ATOM     27  C   UNL     1     -13.145 -15.149   3.599  0.00  0.00    +0.063 C 
BRANCH  27  28
ATOM     28  O   UNL     1     -11.759 -14.840   3.487  0.00  0.00    -0.393 OA
ATOM     29  H   UNL     1     -11.527 -14.883   2.543  0.00  0.00    +0.209 HD
ENDBRANCH  27  28
ENDBRANCH  24  27
ENDBRANCH   2  24
TORSDOF 8
ENDMDL
MODEL 5
REMARK VINA RESULT:    -6.140     19.508     23.653
REMARK INTER + INTRA:          -9.253
REMARK INTER:                  -8.373
REMARK INTRA:                  -0.880
REMARK UNBOUND:                -0.421
REMARK  Name = 160355
REMARK  8 active torsions:
REMARK  status: ('A' for Active; 'I' for Inactive)
REMARK    1  A    between atoms: O_1  and  C_18
REMARK    2  A    between atoms: N_2  and  C_8
REMARK    3  A    between atoms: N_3  and  CA_9
REMARK    4  A    between atoms: N_7  and  C_13
REMARK    5  A    between atoms: N_7  and  C_20
REMARK    6  A    between atoms: CA_9  and  C_12
REMARK    7  A    between atoms: CA_9  and  C_18
REMARK    8  A    between atoms: C_20  and  C_21
REMARK                            x       y       z     vdW  Elec       q    Type
REMARK                         _______ _______ _______ _____ _____    ______ ____
ROOT
ATOM      1  N   UNL     1      -8.347   5.658   0.686  0.00  0.00    -0.312 N 
ATOM      2  N   UNL     1     -10.868   1.645   0.364  0.00  0.00    -0.308 N 
ATOM      3  N   UNL     1      -9.491   3.516   0.642  0.00  0.00    -0.195 NA
ATOM      4  N   UNL     1      -9.740   6.862  -0.572  0.00  0.00    -0.231 NA
ATOM      5  N   UNL     1     -11.537   3.631  -0.684  0.00  0.00    -0.197 NA
ATOM      6  C   UNL     1      -9.354   4.811   0.320  0.00  0.00    +0.167 A 
ATOM      7  C   UNL     1     -10.206   5.576  -0.461  0.00  0.00    +0.148 A 
ATOM      8  C   UNL     1     -11.334   4.939  -0.969  0.00  0.00    +0.152 A 
ATOM      9  C   UNL     1     -10.623   2.979   0.099  0.00  0.00    +0.219 A 
ATOM     10  C   UNL     1      -8.624   6.878   0.127  0.00  0.00    +0.099 A 
ATOM     11  H   UNL     1     -11.742   1.262   0.020  0.00  0.00    +0.149 HD
ENDROOT
BRANCH   1  12
ATOM     12  C   UNL     1      -7.204   5.340   1.507  0.00  0.00    +0.032 C 
ATOM     13  C   UNL     1      -6.106   4.635   0.709  0.00  0.00    -0.044 C 
ATOM     14  C   UNL     1      -6.668   6.568   2.243  0.00  0.00    -0.044 C 
ENDBRANCH   1  12
BRANCH   8  15
ATOM     15  N   UNL     1     -12.253   5.639  -1.771  0.00  0.00    -0.323 N 
ATOM     16  H   UNL     1     -11.976   6.560  -2.092  0.00  0.00    +0.148 HD
BRANCH  15  17
ATOM     17  C   UNL     1     -13.534   5.110  -2.135  0.00  0.00    +0.036 C 
BRANCH  17  18
ATOM     18  C   UNL     1     -13.527   4.648  -3.565  0.00  0.00    -0.030 A 
ATOM     19  C   UNL     1     -13.174   3.337  -3.861  0.00  0.00    -0.057 A 
ATOM     20  C   UNL     1     -13.874   5.537  -4.574  0.00  0.00    -0.057 A 
ATOM     21  C   UNL     1     -13.170   2.909  -5.188  0.00  0.00    -0.061 A 
ATOM     22  C   UNL     1     -13.868   5.108  -5.902  0.00  0.00    -0.061 A 
ATOM     23  C   UNL     1     -13.516   3.794  -6.208  0.00  0.00    -0.062 A 
ENDBRANCH  17  18
ENDBRANCH  15  17
ENDBRANCH   8  15
BRANCH   2  24
ATOM     24  CA  UNL     1      -9.995   0.816   1.172  0.00  0.00    +0.046 C 
BRANCH  24  25
ATOM     25  C   UNL     1      -9.115  -0.053   0.264  0.00  0.00    -0.035 C 
ATOM     26  C   UNL     1      -7.634   0.289   0.377  0.00  0.00    -0.064 C 
ENDBRANCH  24  25
BRANCH  24  27
ATOM     27  C   UNL     1     -10.854  -0.053   2.091  0.00  0.00    +0.063 C 
BRANCH  27  28
ATOM     28  O   UNL     1     -10.011  -0.906   2.858  0.00  0.00    -0.393 OA
ATOM     29  H   UNL     1     -10.485  -1.745   2.988  0.00  0.00    +0.209 HD
ENDBRANCH  27  28
ENDBRANCH  24  27
ENDBRANCH   2  24
TORSDOF 8
ENDMDL
MODEL 6
REMARK VINA RESULT:    -6.113     19.546     22.431
REMARK INTER + INTRA:          -9.214
REMARK INTER:                  -8.348
REMARK INTRA:                  -0.866
REMARK UNBOUND:                -0.421
REMARK  Name = 160355
REMARK  8 active torsions:
REMARK  status: ('A' for Active; 'I' for Inactive)
REMARK    1  A    between atoms: O_1  and  C_18
REMARK    2  A    between atoms: N_2  and  C_8
REMARK    3  A    between atoms: N_3  and  CA_9
REMARK    4  A    between atoms: N_7  and  C_13
REMARK    5  A    between atoms: N_7  and  C_20
REMARK    6  A    between atoms: CA_9  and  C_12
REMARK    7  A    between atoms: CA_9  and  C_18
REMARK    8  A    between atoms: C_20  and  C_21
REMARK                            x       y       z     vdW  Elec       q    Type
REMARK                         _______ _______ _______ _____ _____    ______ ____
ROOT
ATOM      1  N   UNL     1      -6.961  -0.679   1.691  0.00  0.00    -0.312 N 
ATOM      2  N   UNL     1      -6.358   3.369   4.103  0.00  0.00    -0.308 N 
ATOM      3  N   UNL     1      -6.462   1.322   2.974  0.00  0.00    -0.195 NA
ATOM      4  N   UNL     1      -9.025  -0.187   1.004  0.00  0.00    -0.231 NA
ATOM      5  N   UNL     1      -8.334   2.887   2.941  0.00  0.00    -0.197 NA
ATOM      6  C   UNL     1      -7.249   0.553   2.208  0.00  0.00    +0.167 A 
ATOM      7  C   UNL     1      -8.533   0.838   1.771  0.00  0.00    +0.148 A 
ATOM      8  C   UNL     1      -9.074   2.058   2.165  0.00  0.00    +0.152 A 
ATOM      9  C   UNL     1      -7.076   2.494   3.310  0.00  0.00    +0.219 A 
ATOM     10  C   UNL     1      -8.058  -1.081   0.975  0.00  0.00    +0.099 A 
ATOM     11  H   UNL     1      -6.784   4.269   4.296  0.00  0.00    +0.149 HD
ENDROOT
BRANCH   1  12
ATOM     12  C   UNL     1      -5.737  -1.423   1.860  0.00  0.00    +0.032 C 
ATOM     13  C   UNL     1      -5.786  -2.334   3.088  0.00  0.00    -0.044 C 
ATOM     14  C   UNL     1      -5.359  -2.198   0.597  0.00  0.00    -0.044 C 
ENDBRANCH   1  12
BRANCH   8  15
ATOM     15  N   UNL     1     -10.370   2.431   1.768  0.00  0.00    -0.323 N 
ATOM     16  H   UNL     1     -11.130   2.191   2.395  0.00  0.00    +0.148 HD
BRANCH  15  17
ATOM     17  C   UNL     1     -10.645   3.116   0.540  0.00  0.00    +0.036 C 
BRANCH  17  18
ATOM     18  C   UNL     1     -11.167   4.499   0.812  0.00  0.00    -0.030 A 
ATOM     19  C   UNL     1     -10.275   5.523   1.105  0.00  0.00    -0.057 A 
ATOM     20  C   UNL     1     -12.534   4.736   0.767  0.00  0.00    -0.057 A 
ATOM     21  C   UNL     1     -10.760   6.806   1.356  0.00  0.00    -0.061 A 
ATOM     22  C   UNL     1     -13.019   6.020   1.020  0.00  0.00    -0.061 A 
ATOM     23  C   UNL     1     -12.132   7.055   1.313  0.00  0.00    -0.062 A 
ENDBRANCH  17  18
ENDBRANCH  15  17
ENDBRANCH   8  15
BRANCH   2  24
ATOM     24  CA  UNL     1      -5.015   3.099   4.580  0.00  0.00    +0.046 C 
BRANCH  24  25
ATOM     25  C   UNL     1      -5.046   2.813   6.087  0.00  0.00    -0.035 C 
ATOM     26  C   UNL     1      -3.699   2.351   6.627  0.00  0.00    -0.064 C 
ENDBRANCH  24  25
BRANCH  24  27
ATOM     27  C   UNL     1      -4.131   4.307   4.273  0.00  0.00    +0.063 C 
BRANCH  27  28
ATOM     28  O   UNL     1      -4.895   5.500   4.421  0.00  0.00    -0.393 OA
ATOM     29  H   UNL     1      -5.600   5.316   5.066  0.00  0.00    +0.209 HD
ENDBRANCH  27  28
ENDBRANCH  24  27
ENDBRANCH   2  24
TORSDOF 8
ENDMDL
MODEL 7
REMARK VINA RESULT:    -6.025      2.742      7.651
REMARK INTER + INTRA:          -9.087
REMARK INTER:                  -8.004
REMARK INTRA:                  -1.083
REMARK UNBOUND:                -0.421
REMARK  Name = 160355
REMARK  8 active torsions:
REMARK  status: ('A' for Active; 'I' for Inactive)
REMARK    1  A    between atoms: O_1  and  C_18
REMARK    2  A    between atoms: N_2  and  C_8
REMARK    3  A    between atoms: N_3  and  CA_9
REMARK    4  A    between atoms: N_7  and  C_13
REMARK    5  A    between atoms: N_7  and  C_20
REMARK    6  A    between atoms: CA_9  and  C_12
REMARK    7  A    between atoms: CA_9  and  C_18
REMARK    8  A    between atoms: C_20  and  C_21
REMARK                            x       y       z     vdW  Elec       q    Type
REMARK                         _______ _______ _______ _____ _____    ______ ____
ROOT
ATOM      1  N   UNL     1     -13.943 -18.683   6.344  0.00  0.00    -0.312 N 
ATOM      2  N   UNL     1     -17.821 -19.984   3.928  0.00  0.00    -0.308 N 
ATOM      3  N   UNL     1     -15.974 -19.472   5.270  0.00  0.00    -0.195 NA
ATOM      4  N   UNL     1     -13.202 -17.281   4.776  0.00  0.00    -0.231 NA
ATOM      5  N   UNL     1     -16.279 -18.438   3.081  0.00  0.00    -0.197 NA
ATOM      6  C   UNL     1     -14.856 -18.734   5.329  0.00  0.00    +0.167 A 
ATOM      7  C   UNL     1     -14.377 -17.859   4.366  0.00  0.00    +0.148 A 
ATOM      8  C   UNL     1     -15.136 -17.722   3.208  0.00  0.00    +0.152 A 
ATOM      9  C   UNL     1     -16.649 -19.272   4.100  0.00  0.00    +0.219 A 
ATOM     10  C   UNL     1     -12.970 -17.796   5.966  0.00  0.00    +0.099 A 
ATOM     11  H   UNL     1     -18.360 -19.786   3.092  0.00  0.00    +0.149 HD
ENDROOT
BRANCH   1  12
ATOM     12  C   UNL     1     -13.988 -19.418   7.584  0.00  0.00    +0.032 C 
ATOM     13  C   UNL     1     -12.904 -20.496   7.649  0.00  0.00    -0.044 C 
ATOM     14  C   UNL     1     -13.936 -18.493   8.800  0.00  0.00    -0.044 C 
ENDBRANCH   1  12
BRANCH   8  15
ATOM     15  N   UNL     1     -14.726 -16.856   2.179  0.00  0.00    -0.323 N 
ATOM     16  H   UNL     1     -14.535 -15.893   2.436  0.00  0.00    +0.148 HD
BRANCH  15  17
ATOM     17  C   UNL     1     -14.576 -17.275   0.817  0.00  0.00    +0.036 C 
BRANCH  17  18
ATOM     18  C   UNL     1     -13.199 -17.832   0.584  0.00  0.00    -0.030 A 
ATOM     19  C   UNL     1     -13.045 -18.985  -0.174  0.00  0.00    -0.057 A 
ATOM     20  C   UNL     1     -12.098 -17.185   1.130  0.00  0.00    -0.057 A 
ATOM     21  C   UNL     1     -11.768 -19.501  -0.391  0.00  0.00    -0.061 A 
ATOM     22  C   UNL     1     -10.820 -17.702   0.913  0.00  0.00    -0.061 A 
ATOM     23  C   UNL     1     -10.655 -18.859   0.152  0.00  0.00    -0.062 A 
ENDBRANCH  17  18
ENDBRANCH  15  17
ENDBRANCH   8  15
BRANCH   2  24
ATOM     24  CA  UNL     1     -18.347 -20.911   4.913  0.00  0.00    +0.046 C 
BRANCH  24  25
ATOM     25  C   UNL     1     -18.829 -22.190   4.218  0.00  0.00    -0.035 C 
ATOM     26  C   UNL     1     -19.236 -23.279   5.203  0.00  0.00    -0.064 C 
ENDBRANCH  24  25
BRANCH  24  27
ATOM     27  C   UNL     1     -19.494 -20.233   5.662  0.00  0.00    +0.063 C 
BRANCH  27  28
ATOM     28  O   UNL     1     -18.962 -19.283   6.580  0.00  0.00    -0.393 OA
ATOM     29  H   UNL     1     -19.341 -19.478   7.454  0.00  0.00    +0.209 HD
ENDBRANCH  27  28
ENDBRANCH  24  27
ENDBRANCH   2  24
TORSDOF 8
ENDMDL
MODEL 8
REMARK VINA RESULT:    -5.953     21.880     24.973
REMARK INTER + INTRA:          -8.984
REMARK INTER:                  -8.018
REMARK INTRA:                  -0.966
REMARK UNBOUND:                -0.421
REMARK  Name = 160355
REMARK  8 active torsions:
REMARK  status: ('A' for Active; 'I' for Inactive)
REMARK    1  A    between atoms: O_1  and  C_18
REMARK    2  A    between atoms: N_2  and  C_8
REMARK    3  A    between atoms: N_3  and  CA_9
REMARK    4  A    between atoms: N_7  and  C_13
REMARK    5  A    between atoms: N_7  and  C_20
REMARK    6  A    between atoms: CA_9  and  C_12
REMARK    7  A    between atoms: CA_9  and  C_18
REMARK    8  A    between atoms: C_20  and  C_21
REMARK                            x       y       z     vdW  Elec       q    Type
REMARK                         _______ _______ _______ _____ _____    ______ ____
ROOT
ATOM      1  N   UNL     1     -32.041   1.063   1.112  0.00  0.00    -0.312 N 
ATOM      2  N   UNL     1     -29.194  -1.952  -1.205  0.00  0.00    -0.308 N 
ATOM      3  N   UNL     1     -30.648  -0.627   0.062  0.00  0.00    -0.195 NA
ATOM      4  N   UNL     1     -31.552   2.817  -0.176  0.00  0.00    -0.231 NA
ATOM      5  N   UNL     1     -29.406   0.296  -1.826  0.00  0.00    -0.197 NA
ATOM      6  C   UNL     1     -31.144   0.613   0.185  0.00  0.00    +0.167 A 
ATOM      7  C   UNL     1     -30.853   1.716  -0.602  0.00  0.00    +0.148 A 
ATOM      8  C   UNL     1     -29.947   1.524  -1.641  0.00  0.00    +0.152 A 
ATOM      9  C   UNL     1     -29.772  -0.717  -0.981  0.00  0.00    +0.219 A 
ATOM     10  C   UNL     1     -32.255   2.392   0.854  0.00  0.00    +0.099 A 
ATOM     11  H   UNL     1     -28.597  -2.040  -2.019  0.00  0.00    +0.149 HD
ENDROOT
BRANCH   1  12
ATOM     12  C   UNL     1     -32.655   0.293   2.167  0.00  0.00    +0.032 C 
ATOM     13  C   UNL     1     -31.800   0.280   3.436  0.00  0.00    -0.044 C 
ATOM     14  C   UNL     1     -34.085   0.753   2.454  0.00  0.00    -0.044 C 
ENDBRANCH   1  12
BRANCH   8  15
ATOM     15  N   UNL     1     -29.594   2.587  -2.491  0.00  0.00    -0.323 N 
ATOM     16  H   UNL     1     -30.350   3.154  -2.859  0.00  0.00    +0.148 HD
BRANCH  15  17
ATOM     17  C   UNL     1     -28.239   2.887  -2.846  0.00  0.00    +0.036 C 
BRANCH  17  18
ATOM     18  C   UNL     1     -27.929   4.333  -2.576  0.00  0.00    -0.030 A 
ATOM     19  C   UNL     1     -26.909   4.959  -3.282  0.00  0.00    -0.057 A 
ATOM     20  C   UNL     1     -28.666   5.026  -1.625  0.00  0.00    -0.057 A 
ATOM     21  C   UNL     1     -26.623   6.301  -3.033  0.00  0.00    -0.061 A 
ATOM     22  C   UNL     1     -28.378   6.368  -1.375  0.00  0.00    -0.061 A 
ATOM     23  C   UNL     1     -27.357   7.005  -2.079  0.00  0.00    -0.062 A 
ENDBRANCH  17  18
ENDBRANCH  15  17
ENDBRANCH   8  15
BRANCH   2  24
ATOM     24  CA  UNL     1     -29.474  -3.125  -0.396  0.00  0.00    +0.046 C 
BRANCH  24  25
ATOM     25  C   UNL     1     -28.168  -3.870  -0.091  0.00  0.00    -0.035 C 
ATOM     26  C   UNL     1     -28.017  -4.212   1.386  0.00  0.00    -0.064 C 
ENDBRANCH  24  25
BRANCH  24  27
ATOM     27  C   UNL     1     -30.450  -4.024  -1.156  0.00  0.00    +0.063 C 
BRANCH  27  28
ATOM     28  O   UNL     1     -31.780  -3.564  -0.942  0.00  0.00    -0.393 OA
ATOM     29  H   UNL     1     -31.878  -2.723  -1.421  0.00  0.00    +0.209 HD
ENDBRANCH  27  28
ENDBRANCH  24  27
ENDBRANCH   2  24
TORSDOF 8
ENDMDL
MODEL 9
REMARK VINA RESULT:    -5.929     25.267     27.524
REMARK INTER + INTRA:          -8.949
REMARK INTER:                  -8.319
REMARK INTRA:                  -0.629
REMARK UNBOUND:                -0.421
REMARK  Name = 160355
REMARK  8 active torsions:
REMARK  status: ('A' for Active; 'I' for Inactive)
REMARK    1  A    between atoms: O_1  and  C_18
REMARK    2  A    between atoms: N_2  and  C_8
REMARK    3  A    between atoms: N_3  and  CA_9
REMARK    4  A    between atoms: N_7  and  C_13
REMARK    5  A    between atoms: N_7  and  C_20
REMARK    6  A    between atoms: CA_9  and  C_12
REMARK    7  A    between atoms: CA_9  and  C_18
REMARK    8  A    between atoms: C_20  and  C_21
REMARK                            x       y       z     vdW  Elec       q    Type
REMARK                         _______ _______ _______ _____ _____    ______ ____
ROOT
ATOM      1  N   UNL     1     -33.114   2.055  13.455  0.00  0.00    -0.312 N 
ATOM      2  N   UNL     1     -30.972   5.212  10.625  0.00  0.00    -0.308 N 
ATOM      3  N   UNL     1     -31.922   3.742  12.179  0.00  0.00    -0.195 NA
ATOM      4  N   UNL     1     -34.270   1.081  11.816  0.00  0.00    -0.231 NA
ATOM      5  N   UNL     1     -32.488   3.625   9.808  0.00  0.00    -0.197 NA
ATOM      6  C   UNL     1     -32.774   2.715  12.309  0.00  0.00    +0.167 A 
ATOM      7  C   UNL     1     -33.502   2.096  11.305  0.00  0.00    +0.148 A 
ATOM      8  C   UNL     1     -33.335   2.588  10.014  0.00  0.00    +0.152 A 
ATOM      9  C   UNL     1     -31.824   4.155  10.881  0.00  0.00    +0.219 A 
ATOM     10  C   UNL     1     -34.014   1.082  13.108  0.00  0.00    +0.099 A 
ATOM     11  H   UNL     1     -30.844   5.475   9.654  0.00  0.00    +0.149 HD
ENDROOT
BRANCH   1  12
ATOM     12  C   UNL     1     -32.623   2.323  14.785  0.00  0.00    +0.032 C 
ATOM     13  C   UNL     1     -33.418   3.433  15.475  0.00  0.00    -0.044 C 
ATOM     14  C   UNL     1     -32.565   1.056  15.640  0.00  0.00    -0.044 C 
ENDBRANCH   1  12
BRANCH   8  15
ATOM     15  N   UNL     1     -34.034   2.020   8.933  0.00  0.00    -0.323 N 
ATOM     16  H   UNL     1     -34.409   1.087   9.067  0.00  0.00    +0.148 HD
BRANCH  15  17
ATOM     17  C   UNL     1     -34.225   2.696   7.685  0.00  0.00    +0.036 C 
BRANCH  17  18
ATOM     18  C   UNL     1     -33.326   2.118   6.628  0.00  0.00    -0.030 A 
ATOM     19  C   UNL     1     -33.806   1.118   5.791  0.00  0.00    -0.057 A 
ATOM     20  C   UNL     1     -32.026   2.590   6.501  0.00  0.00    -0.057 A 
ATOM     21  C   UNL     1     -32.971   0.583   4.810  0.00  0.00    -0.061 A 
ATOM     22  C   UNL     1     -31.191   2.053   5.520  0.00  0.00    -0.061 A 
ATOM     23  C   UNL     1     -31.664   1.050   4.675  0.00  0.00    -0.062 A 
ENDBRANCH  17  18
ENDBRANCH  15  17
ENDBRANCH   8  15
BRANCH   2  24
ATOM     24  CA  UNL     1     -30.199   5.884  11.653  0.00  0.00    +0.046 C 
BRANCH  24  25
ATOM     25  C   UNL     1     -31.077   6.916  12.372  0.00  0.00    -0.035 C 
ATOM     26  C   UNL     1     -30.268   8.050  12.989  0.00  0.00    -0.064 C 
ENDBRANCH  24  25
BRANCH  24  27
ATOM     27  C   UNL     1     -28.992   6.556  11.001  0.00  0.00    +0.063 C 
BRANCH  27  28
ATOM     28  O   UNL     1     -27.945   5.603  10.849  0.00  0.00    -0.393 OA
ATOM     29  H   UNL     1     -27.770   5.512   9.896  0.00  0.00    +0.209 HD
ENDBRANCH  27  28
ENDBRANCH  24  27
ENDBRANCH   2  24
TORSDOF 8
ENDMDL
