REMARK  Name = 160355
REMARK  8 active torsions:
REMARK  status: ('A' for Active; 'I' for Inactive)
REMARK    1  A    between atoms: O_1  and  C_18
REMARK    2  A    between atoms: N_2  and  C_8
REMARK    3  A    between atoms: N_3  and  CA_9
REMARK    4  A    between atoms: N_7  and  C_13
REMARK    5  A    between atoms: N_7  and  C_20
REMARK    6  A    between atoms: CA_9  and  C_12
REMARK    7  A    between atoms: CA_9  and  C_18
REMARK    8  A    between atoms: C_20  and  C_21
REMARK                            x       y       z     vdW  Elec       q    Type
REMARK                         _______ _______ _______ _____ _____    ______ ____
ROOT
ATOM      1  N   UNL     1       1.748   2.693  -0.159  0.00  0.00    -0.312 N 
ATOM      2  N   UNL     1       2.059  -2.043   0.046  0.00  0.00    -0.308 N 
ATOM      3  N   UNL     1       2.115   0.294  -0.059  0.00  0.00    -0.195 NA
ATOM      4  N   UNL     1      -0.481   2.741  -0.112  0.00  0.00    -0.231 NA
ATOM      5  N   UNL     1       0.002  -0.923   0.042  0.00  0.00    -0.197 NA
ATOM      6  C   UNL     1       1.343   1.390  -0.091  0.00  0.00    +0.167 A 
ATOM      7  C   UNL     1      -0.042   1.442  -0.064  0.00  0.00    +0.148 A 
ATOM      8  C   UNL     1      -0.715   0.226   0.006  0.00  0.00    +0.152 A 
ATOM      9  C   UNL     1       1.368  -0.847   0.009  0.00  0.00    +0.219 A 
ATOM     10  C   UNL     1       0.617   3.466  -0.168  0.00  0.00    +0.099 A 
ATOM     11  H   UNL     1       1.510  -2.887   0.166  0.00  0.00    +0.149 HD
ENDROOT
BRANCH   1  12
ATOM     12  C   UNL     1       3.107   3.174  -0.210  0.00  0.00    +0.032 C 
ATOM     13  C   UNL     1       3.888   2.816   1.056  0.00  0.00    -0.044 C 
ATOM     14  C   UNL     1       3.833   2.706  -1.472  0.00  0.00    -0.044 C 
ENDBRANCH   1  12
BRANCH   8  15
ATOM     15  N   UNL     1      -2.120   0.184   0.038  0.00  0.00    -0.323 N 
ATOM     16  H   UNL     1      -2.608   1.073   0.011  0.00  0.00    +0.148 HD
BRANCH  15  17
ATOM     17  C   UNL     1      -2.864  -1.038   0.109  0.00  0.00    +0.036 C 
BRANCH  17  18
ATOM     18  C   UNL     1      -4.341  -0.759   0.091  0.00  0.00    -0.030 A 
ATOM     19  C   UNL     1      -5.016  -0.561   1.289  0.00  0.00    -0.057 A 
ATOM     20  C   UNL     1      -5.013  -0.702  -1.123  0.00  0.00    -0.057 A 
ATOM     21  C   UNL     1      -6.386  -0.301   1.272  0.00  0.00    -0.061 A 
ATOM     22  C   UNL     1      -6.384  -0.443  -1.139  0.00  0.00    -0.061 A 
ATOM     23  C   UNL     1      -7.070  -0.242   0.058  0.00  0.00    -0.062 A 
ENDBRANCH  17  18
ENDBRANCH  15  17
ENDBRANCH   8  15
BRANCH   2  24
ATOM     24  CA  UNL     1       3.507  -2.132   0.015  0.00  0.00    +0.046 C 
BRANCH  24  25
ATOM     25  C   UNL     1       3.932  -3.538  -0.428  0.00  0.00    -0.035 C 
ATOM     26  C   UNL     1       3.393  -3.910  -1.804  0.00  0.00    -0.064 C 
ENDBRANCH  24  25
BRANCH  24  27
ATOM     27  C   UNL     1       4.049  -1.813   1.408  0.00  0.00    +0.063 C 
BRANCH  27  28
ATOM     28  O   UNL     1       5.471  -1.880   1.388  0.00  0.00    -0.393 OA
ATOM     29  H   UNL     1       5.785  -1.215   0.751  0.00  0.00    +0.209 HD
ENDBRANCH  27  28
ENDBRANCH  24  27
ENDBRANCH   2  24
TORSDOF 8
